&system_setting
system_type			    = 'Linux' !Choose from 'Windows' or 'Linux'
max_openmp_threads	= 8
/

&time_control
run_hours			      = 720.d0,
history_interval    = 360.d0, !history_interval*60 should be a integer multiple to time_step, or the model won't output correctly.
/

&files
input_data_path		  = '/mnt/e/study/BPEM/initialize'
output_data_path	  = '/mnt/e/study/BPEM/output'
/

&domains
time_step			      = 400, !seconds
/

&dynamics
integration_option     = 2, ! Choose from 1 for Square-Conservation format equation, or 2 for Energe-Conservation format equation
time_integration_order = 4,
diff_order             = 8,
spec_exp               = 0.333333333333333
/
